# generated using pymatgen
data_InCuS2
_symmetry_space_group_name_H-M   'P 1'
_cell_length_a   5.52040491
_cell_length_b   5.52040491
_cell_length_c   11.12616975
_cell_angle_alpha   90.00000000
_cell_angle_beta   90.00000000
_cell_angle_gamma   90.00000000
_symmetry_Int_Tables_number   1
_chemical_formula_structural   InCuS2
_chemical_formula_sum   'In4 Cu4 S8'
_cell_volume   339.06858092
_cell_formula_units_Z   4
loop_
 _symmetry_equiv_pos_site_id
 _symmetry_equiv_pos_as_xyz
  1  'x, y, z'
loop_
 _atom_type_symbol
 _atom_type_oxidation_number
  In3+  3.0
  Cu+  1.0
  S2-  -2.0
loop_
 _atom_site_type_symbol
 _atom_site_label
 _atom_site_symmetry_multiplicity
 _atom_site_fract_x
 _atom_site_fract_y
 _atom_site_fract_z
 _atom_site_occupancy
  In3+  In0  1  0.50000000  0.50000000  0.00000000  1
  In3+  In1  1  0.00000000  0.50000000  0.75000000  1
  In3+  In2  1  0.00000000  0.00000000  0.50000000  1
  In3+  In3  1  0.50000000  0.00000000  0.25000000  1
  Cu+  Cu4  1  0.50000000  0.00000000  0.75000000  1
  Cu+  Cu5  1  0.00000000  0.00000000  0.00000000  1
  Cu+  Cu6  1  0.00000000  0.50000000  0.25000000  1
  Cu+  Cu7  1  0.50000000  0.50000000  0.50000000  1
  S2-  S8  1  0.27880269  0.25000000  0.62500000  1
  S2-  S9  1  0.75000000  0.22119731  0.87500000  1
  S2-  S10  1  0.72119731  0.75000000  0.62500000  1
  S2-  S11  1  0.25000000  0.77880269  0.87500000  1
  S2-  S12  1  0.77880269  0.75000000  0.12500000  1
  S2-  S13  1  0.25000000  0.72119731  0.37500000  1
  S2-  S14  1  0.22119731  0.25000000  0.12500000  1
  S2-  S15  1  0.75000000  0.27880269  0.37500000  1
