# generated using pymatgen
data_N2
_symmetry_space_group_name_H-M   'P 1'
_cell_length_a   5.60540879
_cell_length_b   5.60540879
_cell_length_c   5.60540879
_cell_angle_alpha   90.00000000
_cell_angle_beta   90.00000000
_cell_angle_gamma   90.00000000
_symmetry_Int_Tables_number   1
_chemical_formula_structural   N2
_chemical_formula_sum   N4
_cell_volume   176.12535061
_cell_formula_units_Z   2
loop_
 _symmetry_equiv_pos_site_id
 _symmetry_equiv_pos_as_xyz
  1  'x, y, z'
loop_
 _atom_type_symbol
 _atom_type_oxidation_number
  N0+  0.0
loop_
 _atom_site_type_symbol
 _atom_site_label
 _atom_site_symmetry_multiplicity
 _atom_site_fract_x
 _atom_site_fract_y
 _atom_site_fract_z
 _atom_site_occupancy
  N0+  N0  1  0.47679036  0.97679036  0.52320964  1
  N0+  N1  1  0.97679036  0.52320964  0.47679036  1
  N0+  N2  1  0.02320964  0.02320964  0.02320964  1
  N0+  N3  1  0.52320964  0.47679036  0.97679036  1
